test/input/wheatstone_bridge.glm
// $Id: wheatstone_bridge.glm 1182 2008-12-22 22:08:36Z dchassin $
// Copyright (C) 2008 Battelle Memorial Institute

clock {
	timestamp '2000-01-01 0:00:00'; 
}

module network {
	acceleration_factor 1.1;
	convergence_limit 0.001;
}

object node:0 {
	latitude 49N12'34";
	longitude 121W15'48.3";
	type 3; // swing bus
	name "Feeder";
}
object node:1 {
	parent node:0;
}
object node:2 {
	parent node:0;
	Vobs 0.9387-0.00002j;
}
object node:3 {
	parent node:0;
	name "Load";
	S -1.0-0.1j;
	Vobs 0.8762-0.00001j;
}

object link:4 {
	parent node:1;
	Y 8-0.8j;
	from node:0;
	to node:1;
}
object link:5 {
	parent node:2;
	Y 10-1j;
	from node:0;
	to node:2;
}
object link:6 {
	parent node:2;
	Y 5-0.5j;
	from node:1;
	to node:2;
}
object link:7 {
	parent node:3;
	Y 8-0.8j;
	from node:1;
	to node:3;
}
object link:8 {
	parent node:3;
	Y 10-1j;
	from node:2;
	to node:3;
}
